/*--------------------------------*- C++ -*----------------------------------*\
| =========                 |                                                 |
| \\      /  F ield         | OpenFOAM: The Open Source CFD Toolbox           |
|  \\    /   O peration     | Version:  4.x                                   |
|   \\  /    A nd           | Web:      www.OpenFOAM.org                      |
|    \\/     M anipulation  |                                                 |
\*---------------------------------------------------------------------------*/
FoamFile
{
    version     2.0;
    format      ascii;
    class       dictionary;
    object      controlDict;
}
// * * * * * * * * * * * * * * * * * * * * * * * * * * * * * * * * * * * * * //

application     pisoFoam;

//startFrom       startTime;
startFrom       latestTime;

startTime       0;

stopAt          endTime;

endTime         500;

//deltaT          0.005;
//deltaT          0.01;
deltaT          0.025;
//deltaT          0.05;
// deltaT          0.1;

writeControl    runTime;
/*
adjustableRunTime
clockTime
cpuTime
runTime
timeStep
*/

writeInterval   1;

/*
secondaryWriteControl    cpuTime;
secondaryWriteInterval   1000; 
secondaryPurgeWrite      1; 
*/

purgeWrite      0;

writeFormat     ascii;

writePrecision  8;

writeCompression off;

timeFormat      general;

timePrecision   6;

runTimeModifiable true;

adjustTimeStep  yes;
maxCo           5;
// maxCo           1;
maxDeltaT       0.25;

// ************************************************************************* //

functions
{
    #include "functions/inMassFlow"
    #include "functions/outMassFlow"
    #include "functions/additionalFields"
    #include "functions/fieldAverages"
    #include "functions/forces"
    #include "functions/forceCoeffs"
    #include "functions/minMaxDomain"
    #include "functions/vorticity"
    #include "functions/yPlus"
};
