/*--------------------------------*- C++ -*----------------------------------*\
| =========                 |                                                 |
| \\      /  F ield         | OpenFOAM: The Open Source CFD Toolbox           |
|  \\    /   O peration     | Version:  4.x                                   |
|   \\  /    A nd           | Web:      www.OpenFOAM.org                      |
|    \\/     M anipulation  |                                                 |
\*---------------------------------------------------------------------------*/
FoamFile
{
    version     2.0;
    format      ascii;
    class       dictionary;
    object      controlDict;
}
// * * * * * * * * * * * * * * * * * * * * * * * * * * * * * * * * * * * * * //

application     simpleFoam;

startFrom       startTime;
//startFrom       latestTime;

startTime       0;

stopAt          endTime;

endTime         5000;

deltaT          1;

writeControl    runTime;
/*
adjustableRunTime
clockTime
cpuTime
runTime
timeStep
*/

writeInterval   1;

/*
secondaryWriteControl    cpuTime;
secondaryWriteInterval   1000; 
secondaryPurgeWrite      1; 
*/

purgeWrite      0;

writeFormat     ascii;

writePrecision  8;

writeCompression off;

timeFormat      general;

timePrecision   6;

runTimeModifiable yes;

/*
adjustTimeStep  yes;
maxCo           1;
maxDeltaT       0.1;
*/

// ************************************************************************* //

functions
{
    #include "functions/inMassFlow"
    #include "functions/outMassFlow"
    #include "functions/additionalFields"
    #include "functions/fieldAverages"
    #include "functions/forces"
    #include "functions/forceCoeffs"
    #include "functions/minMaxDomain"
    #include "functions/yPlus"
    #include "functions/vorticity"
};
